LTspice 24.1.5 for Windows
Circuit: C:\Users\Subodha\Desktop\Desk\2nd Semester\Electronics\BJT\BJT.net
Start Time: Thu Apr 24 00:03:08 2025
solver = Normal
Maximum thread count: 12
tnom = 27
temp = 27
method = trap
Direct Newton iteration for .op point succeeded.
Total elapsed time: 2.469 seconds.

Files loaded:
C:\Users\Subodha\Desktop\Desk\2nd Semester\Electronics\BJT\BJT.net
C:\Users\Subodha\AppData\Local\LTspice\lib\cmp\standard.bjt

