LTspice 24.1.5 for Windows
Circuit: C:\Users\Subodha\Desktop\Desk\2nd Semester\Electronics\LT Spices\Scaling Adder\scallin adder.net
Start Time: Sun Apr 20 23:58:27 2025
solver = Normal
Maximum thread count: 12
tnom = 27
temp = 27
method = trap
Direct Newton iteration failed to find .op point.  (Use ".option noopiter" to skip.)
Starting Gmin stepping
Gmin = 10
Gmin = 1.07374
vernier = 0.5
vernier = 0.25
vernier = 0.125
Gmin = 1.02385
vernier = 0.0625
vernier = 0.03125
vernier = 0.015625
Gmin = 1.02347
vernier = 0.0078125
vernier = 0.00390625
Gmin = 1.01452
vernier = 0.00520833
vernier = 0.00260417
vernier = 0.00130208
Gmin = 1.00991
vernier = 0.00173611
vernier = 0.000868055
Gmin = 1.00761
vernier = 0.00115741
vernier = 0.000578703
Gmin = 1.00601
vernier = 0.000771604
vernier = 0.000578703
Gmin = 1.00475
vernier = 0.000771604
vernier = 0.000578703
vernier = 0.000434027
vernier = 0.000578703
Gmin = 1.00406
vernier = 0.000434027
Gmin = 0
Gmin stepping failed

Starting source stepping with srcstepmethod=0
Source Step = 3.0303%
Source Step = 33.3333%
Source Step = 63.6364%
Source Step = 93.9394%
Source stepping succeeded in finding the operating point.

Total elapsed time: 1.265 seconds.

Files loaded:
C:\Users\Subodha\Desktop\Desk\2nd Semester\Electronics\LT Spices\Scaling Adder\scallin adder.net
C:\Users\Subodha\Desktop\Desk\2nd Semester\Electronics\LT Spices\Unity gain amplifier\LM 741\lm741.lib

