LTspice 24.1.7 for Windows
Circuit: C:\Users\Subodha\Desktop\Desk\2nd Semester\Electronics\Electronic Design Project\Draft1.net
Start Time: Sun May 25 21:22:44 2025
solver = Normal
Maximum thread count: 12
tnom = 27
temp = 27
method = trap
.OP point found by inspection.
Total elapsed time: 7.677 seconds.

Files loaded:
C:\Users\Subodha\Desktop\Desk\2nd Semester\Electronics\Electronic Design Project\Draft1.net
C:\Users\Subodha\AppData\Local\LTspice\lib\cmp\standard.dio
C:\Users\Subodha\AppData\Local\LTspice\lib\cmp\standard.jft

