LTspice 24.1.7 for Windows
Circuit: C:\Users\Subodha\Desktop\Desk\2nd Semester\Electronics\Electronic Design Project\FullWvrect.net
Start Time: Sun May 25 20:31:46 2025
solver = Normal
Maximum thread count: 12
tnom = 27
temp = 27
method = trap
WARNING: Node n003 is floating.

Direct Newton iteration for .op point succeeded.
Total elapsed time: 0.227 seconds.

Files loaded:
C:\Users\Subodha\Desktop\Desk\2nd Semester\Electronics\Electronic Design Project\FullWvrect.net
C:\Users\Subodha\AppData\Local\LTspice\lib\cmp\standard.dio
C:\Users\Subodha\AppData\Local\LTspice\lib\cmp\standard.jft

