LTspice 24.1.7 for Windows
Circuit: C:\Users\Subodha\Desktop\Desk\2nd Semester\Electronics\Electronic Design Project\PreAmp.net
Start Time: Tue May 27 00:55:00 2025
solver = Normal
Maximum thread count: 12
tnom = 27
temp = 27
method = trap
Direct Newton iteration for .op point succeeded.
Total elapsed time: 0.239 seconds.

Files loaded:
C:\Users\Subodha\Desktop\Desk\2nd Semester\Electronics\Electronic Design Project\PreAmp.net
C:\Users\Subodha\AppData\Local\LTspice\lib\cmp\standard.dio
C:\Users\Subodha\AppData\Local\LTspice\lib\cmp\standard.jft

vo: PP(V(Vout))=0.211092531681 FROM 0 TO 0.01
vi: PP(V(Vin))=0.0199999921024 FROM 0 TO 0.01
v_gain: -VO/VI=-10.5546307519
io: PP(I(R2))=2.11092537938e-05 FROM 0 TO 0.01
ii: PP(I(RG))=1.99993870353e-07 FROM 0 TO 0.01
i_gain: IO/II=105.549503875
