LTspice 24.1.7 for Windows
Circuit: C:\Users\Subodha\Desktop\Desk\2nd Semester\Electronics\Electronic Design Project\PrePreAmp.net
Start Time: Mon May 26 23:05:15 2025
solver = Normal
Maximum thread count: 12
tnom = 27
temp = 27
method = trap
Direct Newton iteration for .op point succeeded.
Total elapsed time: 0.132 seconds.

Files loaded:
C:\Users\Subodha\Desktop\Desk\2nd Semester\Electronics\Electronic Design Project\PrePreAmp.net
C:\Users\Subodha\AppData\Local\LTspice\lib\cmp\standard.jft

vo: PP(V(Vout))=3.0553123951 FROM 0 TO 0.01
vi: PP(V(Vin))=0.799987971783 FROM 0 TO 0.01
v_gain: -VO/VI=-3.81919791655
io: PP(I(R2))=0.000305531226331 FROM 0 TO 0.01
ii: PP(I(RG))=7.99986537459e-06 FROM 0 TO 0.01
i_gain: IO/II=38.1920459939
