LTspice 24.1.7 for Windows
Circuit: C:\Users\Subodha\Desktop\Desk\2nd Semester\Electronics\Electronic Design Project\The_Full_Wave_rect.net
Start Time: Sun May 25 21:01:10 2025
solver = Normal
Maximum thread count: 12
tnom = 27
temp = 27
method = trap
.OP point found by inspection.
Total elapsed time: 0.799 seconds.

Files loaded:
C:\Users\Subodha\Desktop\Desk\2nd Semester\Electronics\Electronic Design Project\The_Full_Wave_rect.net
C:\Users\Subodha\AppData\Local\LTspice\lib\cmp\standard.dio

