LTspice 24.1.7 for Windows
Circuit: C:\Users\Subodha\Desktop\Desk\2nd Semester\Electronics\230469B.net
Start Time: Fri May 30 15:52:32 2025
solver = Normal
Maximum thread count: 12
tnom = 27
temp = 27
method = trap
.OP point found by inspection.
Total elapsed time: 7.187 seconds.

Files loaded:
C:\Users\Subodha\Desktop\Desk\2nd Semester\Electronics\230469B.net
C:\Users\Subodha\AppData\Local\LTspice\lib\cmp\standard.dio
C:\Users\Subodha\AppData\Local\LTspice\lib\cmp\standard.jft

vo: PP(V(Vout))=5.53386668503 FROM 0 TO 0.5
vi: PP(V(Vin))=0.20000000298 FROM 0 TO 0.5
v_gain: -VO/VI=-27.6693330129
io: PP(I(R2))=0.000553386681304 FROM 0 TO 0.5
ii: PP(I(RG))=2.00075209378e-06 FROM 0 TO 0.5
i_gain: IO/II=276.589330095
