LTspice 24.1.7 for Windows
Circuit: C:\Users\Subodha\Desktop\Desk\2nd Semester\Electronics\Final Scemetic.net
Start Time: Fri May 30 14:55:53 2025
solver = Normal
Maximum thread count: 12
tnom = 27
temp = 27
method = trap
.OP point found by inspection.
Total elapsed time: 12.168 seconds.

Files loaded:
C:\Users\Subodha\Desktop\Desk\2nd Semester\Electronics\Final Scemetic.net
C:\Users\Subodha\AppData\Local\LTspice\lib\cmp\standard.dio
C:\Users\Subodha\AppData\Local\LTspice\lib\cmp\standard.jft

vo: PP(V(Vout))=6.57519042492 FROM 0 TO 1
vi: PP(V(Vin))=0.400000008605 FROM 0 TO 1
v_gain: -VO/VI=-16.4379757087
io: PP(I(R2))=0.00065751906368 FROM 0 TO 1
ii: PP(I(RG))=4.0144761897e-06 FROM 0 TO 1
i_gain: IO/II=163.787012953
