LTspice 24.1.5 for Windows
Circuit: C:\Users\Subodha\Desktop\Desk\2nd Semester\Electronics\LT Spices\instrumentation amplifier\instrumental amp.net
Start Time: Wed Apr  9 19:48:10 2025
solver = Normal
Maximum thread count: 12
tnom = 27
temp = 27
method = trap
Direct Newton iteration for .op point succeeded.
Total elapsed time: 0.508 seconds.

Files loaded:
C:\Users\Subodha\Desktop\Desk\2nd Semester\Electronics\LT Spices\instrumentation amplifier\instrumental amp.net
C:\Users\Subodha\Desktop\Desk\2nd Semester\Electronics\LT Spices\Unity gain amplifier\LM 741\lm741.lib

