LTspice 24.1.7 for Windows
Circuit: C:\Users\Subodha\Desktop\Desk\2nd Semester\Electronics\JFET\Design examples.net
Start Time: Sat Apr 26 16:47:29 2025
solver = Normal
Maximum thread count: 12
tnom = 27
temp = 27
method = trap
.OP point found by inspection.
Total elapsed time: 0.172 seconds.

Files loaded:
C:\Users\Subodha\Desktop\Desk\2nd Semester\Electronics\JFET\Design examples.net

