LTspice 24.1.7 for Windows
Circuit: C:\Users\Subodha\Desktop\Desk\2nd Semester\Electronics\JFET\Draft4.net
Start Time: Sat Apr 26 15:22:43 2025
solver = Normal
Maximum thread count: 12
tnom = 27
temp = 27
method = trap
Direct Newton iteration for .op point succeeded.
Total elapsed time: 0.108 seconds.

Files loaded:
C:\Users\Subodha\Desktop\Desk\2nd Semester\Electronics\JFET\Draft4.net
C:\Users\Subodha\AppData\Local\LTspice\lib\cmp\standard.jft

