LTspice 24.1.5 for Windows
Circuit: C:\Users\Subodha\Desktop\Desk\2nd Semester\Electronics\LT Spices\demo.net
Start Time: Fri Apr 11 22:51:52 2025
solver = Normal
Maximum thread count: 12
tnom = 27
temp = 27
method = trap
WARNING: Node n002 is floating.

.OP point found by inspection.
Total elapsed time: 0.299 seconds.

Files loaded:
C:\Users\Subodha\Desktop\Desk\2nd Semester\Electronics\LT Spices\demo.net
C:\Users\Subodha\AppData\Local\LTspice\lib\cmp\standard.dio

