LTspice 24.1.5 for Windows
Circuit: C:\Users\Subodha\Desktop\Desk\2nd Semester\Electronics\LT Spices\Draft2.net
Start Time: Fri Apr 25 20:54:22 2025
solver = Normal
Maximum thread count: 12
tnom = 27
temp = 27
method = trap
Direct Newton iteration for .op point succeeded.
Total elapsed time: 0.141 seconds.

Files loaded:
C:\Users\Subodha\Desktop\Desk\2nd Semester\Electronics\LT Spices\Draft2.net
C:\Users\Subodha\AppData\Local\LTspice\lib\cmp\standard.bjt

C:\Users\Subodha\Desktop\Desk\2nd Semester\Electronics\LT Spices\Draft2.net(15): Voltage not found.
.meas VO PP V(Vout)
            ^^^^^^^
