LTspice 24.1.5 for Windows
Circuit: C:\Users\Subodha\Desktop\Desk\2nd Semester\Electronics\LT Spices\Draft3.net
Start Time: Mon Apr 21 00:00:38 2025
solver = Normal
Maximum thread count: 12
tnom = 27
temp = 27
method = trap
WARNING: Node n004 is floating.

Direct Newton iteration failed to find .op point.  (Use ".option noopiter" to skip.)
Starting Gmin stepping
Gmin = 10
Gmin = 1.07374
Gmin = 0.115292
Gmin = 0.0123794
Gmin = 0.00132923
Gmin = 0.000142725
Gmin = 1.5325e-05
Gmin = 1.6455e-06
Gmin = 1.76685e-07
Gmin = 1.89714e-08
Gmin = 2.03704e-09
Gmin = 2.18725e-10
Gmin = 2.34854e-11
Gmin = 2.52173e-12
Gmin = 2.70769e-13
Terminal Gmin changed to 1e-14
Gmin = 4.54274e-14
Terminal Gmin changed to 1e-15
Gmin = 7.62146e-15
vernier = 0.5
vernier = 0.25
vernier = 0.333333
vernier = 0.166667
Gmin = 7.03563e-15
vernier = 0.0833333
vernier = 0.0416667
vernier = 0.0208333
vernier = 0.0104167
vernier = 0.00520833
vernier = 0.00260417
vernier = 0.00130208
vernier = 0.000651042
vernier = 0.000488281
Gmin = 7.03563e-15
Gmin = 0
Gmin stepping failed

Starting source stepping with srcstepmethod=0
Source Step = 3.0303%
vernier = 0.25
Source Step = 1.39678%
Source Step = 1.42341%
Source Step = 1.45301%
Source Step = 1.4826%
Source Step = 1.51219%
Source Step = 1.54179%
Source Step = 1.57138%
Source Step = 1.60097%
Source Step = 1.63056%
vernier = 0.00146484
Source Step = 1.66755%
Source Step = 1.71194%
Source Step = 1.75633%
Source Step = 1.80072%
Source Step = 1.84511%
vernier = 0.00219727
Source Step = 1.89838%
Source Step = 1.96496%
Source Step = 2.03155%
Source Step = 2.09813%
Source Step = 2.16471%
vernier = 0.0032959
Source Step = 2.24128%
Source Step = 2.34116%
Source Step = 2.44104%
Source Step = 2.54091%
Source Step = 2.64079%
vernier = 0.00494385
Source Step = 2.75065%
Source Step = 2.90046%
Source Step = 3.05028%
Source Step = 3.20009%
Source Step = 3.34991%
vernier = 0.00741577
Source Step = 3.50721%
Source Step = 3.73193%
Source Step = 3.95665%
Source Step = 4.18137%
Source Step = 4.40609%
Source Step = 4.63081%
vernier = 0.0111237
Source Step = 4.96789%
Source Step = 5.30497%
Source Step = 5.64205%
Source Step = 5.97913%
Source Step = 6.31621%
vernier = 0.0166855
Source Step = 6.80498%
Source Step = 7.3106%
Source Step = 7.81622%
Source Step = 8.32184%
Source Step = 8.56517%
Source Step = 8.59677%
Source Step = 8.62838%
Source Step = 8.65998%
Source Step = 8.69158%
Source Step = 8.72318%
vernier = 0.00156426
Source Step = 8.76426%
Source Step = 8.81166%
Source Step = 8.85907%
Source Step = 8.90647%
Source Step = 8.95387%
vernier = 0.0023464
Source Step = 9.01312%
Source Step = 9.08422%
Source Step = 9.15533%
Source Step = 9.22643%
Source Step = 9.29753%
Source Step = 9.36864%
Source Step = 9.43974%
Source Step = 9.51084%
Source Step = 9.58194%
vernier = 0.00351959
Source Step = 9.68504%
Source Step = 9.7917%
Source Step = 9.89835%
Source Step = 10.005%
Source Step = 10.1117%
vernier = 0.00527939
Source Step = 10.261%
Source Step = 10.421%
Source Step = 10.5809%
Source Step = 10.7409%
Source Step = 10.9009%
vernier = 0.00791909
Source Step = 11.1169%
Source Step = 11.3569%
Source Step = 11.5968%
Source Step = 11.8368%
Source Step = 12.0768%
vernier = 0.0118786
Source Step = 12.3887%
Source Step = 12.7487%
Source Step = 13.1086%
Source Step = 13.4686%
Source Step = 13.8286%
vernier = 0.0178179
Source Step = 14.2785%
Source Step = 14.8185%
Source Step = 15.3584%
Source Step = 15.8983%
Source Step = 16.4383%
vernier = 0.0267269
Source Step = 17.0862%
Source Step = 17.8961%
Source Step = 18.706%
Source Step = 19.5159%
Source Step = 20.3258%
vernier = 0.0400904
Source Step = 21.2572%
Source Step = 22.4721%
Source Step = 23.6869%
Source Step = 24.9018%
Source Step = 26.1167%
vernier = 0.0601356
Source Step = 27.453%
Source Step = 29.2753%
Source Step = 31.0976%
Source Step = 32.9199%
Source Step = 34.7422%
vernier = 0.0902034
Source Step = 36.6556%
Source Step = 39.389%
Source Step = 42.1224%
Source Step = 44.8559%
Source Step = 47.5893%
Source Step = 50.3227%
vernier = 0.135305
Source Step = 54.4229%
Source Step = 58.523%
Source Step = 62.6232%
Source Step = 66.7234%
Source Step = 70.8235%
vernier = 0.202958
Source Step = 76.7687%
Source Step = 82.919%
Source Step = 89.0692%
Source Step = 92.1635%
Source Step = 92.2596%
Source Step = 92.3557%
Source Step = 92.4518%
Source Step = 92.5479%
Source Step = 92.644%
Source Step = 92.7401%
Source Step = 92.8362%
Source Step = 92.9323%
Source Step = 93.0284%
Source Step = 93.1245%
Source Step = 93.2206%
Source Step = 93.3167%
Source Step = 93.4128%
Source Step = 93.5089%
Source Step = 93.605%
Source Step = 93.7011%
Source Step = 93.7972%
Source Step = 93.8933%
Source Step = 93.9894%
Source Step = 94.0855%
Source Step = 94.1816%
Source Step = 94.2777%
Source Step = 94.3738%
Source Step = 94.4699%
Source Step = 94.566%
Source Step = 94.662%
Source Step = 94.7581%
Source Step = 94.8542%
Source Step = 94.9503%
Source Step = 95.0464%
Source Step = 95.1425%
Source Step = 95.2386%
Source Step = 95.3347%
Source Step = 95.4308%
Source Step = 95.5269%
Source Step = 95.623%
Source Step = 95.7191%
Source Step = 95.8152%
Source Step = 95.9113%
Source Step = 96.0074%
Source Step = 96.1035%
Source Step = 96.1996%
Source Step = 96.2957%
Source Step = 96.3918%
Source Step = 96.4879%
Source Step = 96.584%
Source Step = 96.6801%
Source Step = 96.7762%
Source Step = 96.8723%
Source Step = 96.9684%
Source Step = 97.0645%
Source Step = 97.1606%
Source Step = 97.2567%
Source Step = 97.3528%
Source Step = 97.4489%
Source Step = 97.545%
Source Step = 97.6411%
Source Step = 97.7372%
Source Step = 97.8333%
Source Step = 97.9294%
Source Step = 98.0255%
Source Step = 98.1216%
Source Step = 98.2176%
Source Step = 98.3137%
Source Step = 98.4098%
Source Step = 98.5059%
Source Step = 98.602%
Source Step = 98.6981%
Source Step = 98.7942%
Source Step = 98.8903%
Source Step = 98.9864%
Source Step = 99.0825%
Source Step = 99.1786%
Source Step = 99.2747%
Source Step = 99.3708%
Source Step = 99.4669%
Source Step = 99.563%
Source Step = 99.6591%
Source Step = 99.7552%
Source Step = 99.8513%
Source Step = 99.9474%
Source Step = 100%
Source Step = 100%
Source Step = 100%
Source Step = 100%
Source Step = 100%
Source Step = 100%
Source Step = 100%
Source Step = 100%
Source Step = 100%
Source Step = 100%
Source Step = 100%
Source Step = 100%
Source Step = 100%
Source Step = 100%
Source Step = 100%
Source Step = 100%
Source Step = 100%
Source Step = 100%
Source Step = 100%
Source Step = 100%
Source Step = 100%
Source Step = 100%
Source Step = 100%
Source Step = 100%
Source Step = 100%
Source Step = 100%
Source Step = 100%
Source Step = 100%
Source Step = 100%
Source Step = 100%
Source Step = 100%
Source Step = 100%
Source Step = 100%
Source Step = 100%
Source Step = 100%
Source Step = 100%
Source Step = 100%
Source Step = 100%
Source Step = 100%
Source Step = 100%
Source Step = 100%
Source Step = 100%
Source Step = 100%
Source Step = 100%
Source Step = 100%
Source Step = 100%
Source Step = 100%
Source Step = 100%
Source Step = 100%
Source Step = 100%
Source Step = 100%
Source Step = 100%
Source Step = 100%
Source Step = 100%
Source Step = 100%
Source Step = 100%
Source Step = 100%
Source Step = 100%
Source Step = 100%
Source Step = 100%
Source Step = 100%
Source Step = 100%
Source Step = 100%
Source Step = 100%
Source Step = 100%
Source Step = 100%
Source Step = 100%
Source Step = 100%
Source Step = 100%
Source Step = 100%
Source Step = 100%
Source Step = 100%
Source Step = 100%
Source Step = 100%
Source Step = 100%
Source Step = 100%
Source Step = 100%
Source Step = 100%
Source Step = 100%
Source Step = 100%
Source Step = 100%
Source Step = 100%
Source Step = 100%
Source Step = 100%
Source Step = 100%
Source Step = 100%
Source Step = 100%
Source Step = 100%
Source Step = 100%
Source Step = 100%
Source Step = 100%
Source Step = 100%
Source Step = 100%
Source Step = 100%
Source Step = 100%
Source Step = 100%
Source Step = 100%
Source Step = 100%
Source Step = 100%
Source Step = 100%
Source Step = 100%
Source Step = 100%
Source Step = 100%
Source Step = 100%
Source Step = 100%
Source Step = 100%
Source Step = 100%
Source Step = 100%
Source Step = 100%
Source Step = 100%
Source Step = 100%
Source Step = 100%
Source Step = 100%
Source Step = 100%
Source Step = 100%
Source Step = 100%
Source Step = 100%
Source Step = 100%
Source Step = 100%
Source Step = 100%
Source Step = 100%
Source Step = 100%
Source Step = 100%
Source Step = 100%
Source Step = 100%
Source Step = 100%
Source Step = 100%
Source Step = 100%
Source Step = 100%
Source Step = 100%
Source Step = 100%
Source Step = 100%
Source Step = 100%
Source Step = 100%
Source Step = 100%
Source Step = 100%
Source Step = 100%
Source Step = 100%
Source Step = 100%
Source Step = 100%
Source Step = 100%
Source Step = 100%
Source Step = 100%
Source Step = 100%
Source Step = 100%
Source Step = 100%
Source Step = 100%
Source Step = 100%
Source Step = 100%
Source Step = 100%
Source Step = 100%
Source Step = 100%
Source Step = 100%
Source Step = 100%
Source Step = 100%
Source Step = 100%
Source Step = 100%
Source Step = 100%
Source Step = 100%
Source Step = 100%
Source Step = 100%
Source Step = 100%
Source Step = 100%
Source Step = 100%
Source Step = 100%
Source Step = 100%
Source Step = 100%
Source Step = 100%
Source Step = 100%
Source Step = 100%
Source Step = 100%
Source Step = 100%
Source Step = 100%
Source Step = 100%
Source Step = 100%
Source Step = 100%
Source Step = 100%
Source Step = 100%
Source Step = 100%
Source Step = 100%
Source Step = 100%
Source Step = 100%
Source Step = 100%
Source Step = 100%
Source Step = 100%
Source Step = 100%
Source Step = 100%
Source Step = 100%
Source Step = 100%
Source Step = 100%
Source Step = 100%
Source Step = 100%
Source Step = 100%
Source Step = 100%
Source Step = 100%
Source Step = 100%
Source Step = 100%
Source Step = 100%
Source Step = 100%
Source Step = 100%
Source Step = 100%
Source Step = 100%
Source Step = 100%
Source Step = 100%
Source Step = 100%
Source Step = 100%
Source Step = 100%
Source Step = 100%
Source Step = 100%
Source Step = 100%
Source Step = 100%
Source Step = 100%
Source Step = 100%
Source Step = 100%
Source Step = 100%
Source Step = 100%
Source Step = 100%
Source Step = 100%
Source Step = 100%
Source Step = 100%
Source Step = 100%
Source Step = 100%
Source Step = 100%
Source Step = 100%
Source Step = 100%
Source Step = 100%
Source Step = 100%
Source Step = 100%
Source Step = 100%
Source Step = 100%
Source Step = 100%
Source Step = 100%
Source Step = 100%
Source Step = 100%
Source Step = 100%
Source Step = 100%
Source Step = 100%
Source Step = 100%
Source Step = 100%
Source Step = 100%
Source Step = 100%
Source Step = 100%
Source Step = 100%
Source Step = 100%
Source Step = 100%
Source Step = 100%
Source Step = 100%
Source Step = 100%
Source Step = 100%
Source Step = 100%
Source Step = 100%
Source Step = 100%
Source Step = 100%
Source Step = 100%
Source Step = 100%
Source Step = 100%
Source Step = 100%
Source Step = 100%
Source Step = 100%
Source Step = 100%
Source Step = 100%
Source Step = 100%
Source Step = 100%
Source Step = 100%
Source Step = 100%
Source Step = 100%
Source Step = 100%
Source Step = 100%
Source Step = 100%
Source Step = 100%
Source Step = 100%
Source Step = 100%
Source Step = 100%
Source Step = 100%
Source Step = 100%
Source Step = 100%
Source Step = 100%
Source Step = 100%
Source Step = 100%
Source Step = 100%
Source Step = 100%
Source Step = 100%
Source Step = 100%
Source Step = 100%
Source Step = 100%
Source Step = 100%
Source Step = 100%
Source Step = 100%
Source Step = 100%
Source Step = 100%
Source Step = 100%
Source Step = 100%
Source Step = 100%
Source Step = 100%
Source Step = 100%
Source Step = 100%
Source Step = 100%
Source Step = 100%
Source Step = 100%
Source Step = 100%
Source Step = 100%
Source Step = 100%
Source Step = 100%
Source Step = 100%
Source Step = 100%
Source Step = 100%
Source Step = 100%
Source Step = 100%
Source Step = 100%
Source Step = 100%
Source Step = 100%
Source Step = 100%
Source Step = 100%
Source Step = 100%
Source Step = 100%
Source Step = 100%
Source Step = 100%
Source Step = 100%
Source Step = 100%
Source Step = 100%
Source Step = 100%
Source Step = 100%
Source Step = 100%
Source Step = 100%
Source Step = 100%
Source Step = 100%
Source Step = 100%
Source Step = 100%
Source Step = 100%
Source Step = 100%
Source Step = 100%
Source Step = 100%
Source Step = 100%
Source Step = 100%
Source Step = 100%
Source Step = 100%
Source Step = 100%
Source Step = 100%
Source Step = 100%
Source Step = 100%
Source Step = 100%
Source Step = 100%
Source Step = 100%
Source Step = 100%
Source Step = 100%
Source Step = 100%
Source Step = 100%
Source Step = 100%
Source Step = 100%
Source Step = 100%
Source Step = 100%
Source Step = 100%
Source Step = 100%
Source Step = 100%
Source Step = 100%
Source Step = 100%
Source Step = 100%
Source Step = 100%
Source Step = 100%
Source Step = 100%
Source Step = 100%
Source Step = 100%
Source Step = 100%
Source Step = 100%
Source Step = 100%
Source Step = 100%
Source Step = 100%
Source Step = 100%
Source Step = 100%
Source Step = 100%
Source Step = 100%
Source Step = 100%
Source Step = 100%
Source Step = 100%
Source Step = 100%
Source Step = 100%
Source Step = 100%
Source Step = 100%
Source Step = 100%
Source Step = 100%
Source Step = 100%
Source Step = 100%
Source Step = 100%
Source Step = 100%
Source Step = 100%
Source Step = 100%
Source Step = 100%
Source Step = 100%
Source Step = 100%
Source Step = 100%
Source Step = 100%
Source Step = 100%
Source Step = 100%
Source Step = 100%
Source Step = 100%
Source Step = 100%
Source Step = 100%
Source Step = 100%
Source Step = 100%
Source Step = 100%
Source Step = 100%
Source Step = 100%
Source Step = 100%
Source Step = 100%
Source Step = 100%
Source Step = 100%
Source Step = 100%
Source Step = 100%
Source Step = 100%
Source Step = 100%
Source Step = 100%
Source Step = 100%
Source Step = 100%
Source Step = 100%
Source Step = 100%
Source Step = 100%
Source Step = 100%
Source Step = 100%
Source Step = 100%
Source Step = 100%
Source Step = 100%
Source Step = 100%
Source Step = 100%
Source Step = 100%
Source Step = 100%
Source Step = 100%
Source Step = 100%
Source Step = 100%
Source Step = 100%
Source Step = 100%
Source Step = 100%
Source Step = 100%
Source Step = 100%
Source Step = 100%
Source Step = 100%
Source Step = 100%
Source Step = 100%
Source Step = 100%
Source Step = 100%
Source Step = 100%
Source Step = 100%
Source Step = 100%
Source Step = 100%
Source Step = 100%
Source Step = 100%
Source Step = 100%
Source Step = 100%
Source Step = 100%
Source Step = 100%
Source Step = 100%
Source Step = 100%
Source Step = 100%
Source Step = 100%
Source Step = 100%
Source Step = 100%
Source Step = 100%
Source Step = 100%
Source Step = 100%
Source Step = 100%
Source Step = 100%
Source Step = 100%
Source Step = 100%
Source Step = 100%
Source Step = 100%
Source Step = 100%
Source Step = 100%
Source Step = 100%
Source Step = 100%
Source Step = 100%
Source Step = 100%
Source Step = 100%
Source Step = 100%
Source Step = 100%
Source Step = 100%
Source Step = 100%
Source Step = 100%
Source Step = 100%
Source Step = 100%
Source Step = 100%
Source Step = 100%
Source Step = 100%
Source Step = 100%
Source Step = 100%
Source Step = 100%
Source Step = 100%
Source Step = 100%
Source Step = 100%
Source Step = 100%
Source Step = 100%
Source Step = 100%
Source Step = 100%
Source Step = 100%
Source Step = 100%
Source Step = 100%
Source Step = 100%
Source Step = 100%
Source Step = 100%
Source Step = 100%
Source Step = 100%
Source Step = 100%
Source Step = 100%
Source Step = 100%
Source Step = 100%
Source Step = 100%
Source Step = 100%
Source Step = 100%
Source Step = 100%
Source Step = 100%
Source Step = 100%
Source Step = 100%
Source Step = 100%
Source Step = 100%
Source Step = 100%
Source Step = 100%
Source Step = 100%
Source Step = 100%
Source Step = 100%
Source Step = 100%
Source Step = 100%
Source Step = 100%
Source Step = 100%
Source Step = 100%
Source Step = 100%
Source Step = 100%
Source Step = 100%
Source Step = 100%
Source Step = 100%
Source Step = 100%
Source Step = 100%
Source Step = 100%
Source Step = 100%
Source Step = 100%
Source Step = 100%
Source Step = 100%
Source Step = 100%
Source Step = 100%
Source Step = 100%
Source Step = 100%
Source Step = 100%
Source Step = 100%
Source Step = 100%
Source Step = 100%
Source Step = 100%
Source Step = 100%
Source Step = 100%
Source Step = 100%
Source Step = 100%
Source Step = 100%
Source Step = 100%
Source Step = 100%
Source Step = 100%
Source Step = 100%
Source Step = 100%
Source Step = 100%
Source Step = 100%
Source Step = 100%
Source Step = 100%
Source Step = 100%
Source Step = 100%
Source Step = 100%
Source Step = 100%
Source Step = 100%
Source Step = 100%
Source Step = 100%
Source Step = 100%
Source Step = 100%
Source Step = 100%
Source Step = 100%
Source Step = 100%
Source Step = 100%
Source Step = 100%
Source Step = 100%
Source Step = 100%
Source Step = 100%
Source Step = 100%
Source Step = 100%
Source Step = 100%
Source Step = 100%
Source Step = 100%
Source Step = 100%
Source Step = 100%
Source Step = 100%
Source Step = 100%
Source Step = 100%
Source Step = 100%
Source Step = 100%
Source Step = 100%
Source Step = 100%
Source Step = 100%
Source Step = 100%
Source Step = 100%
Source Step = 100%
Source Step = 100%
Source Step = 100%
Source Step = 100%
Source Step = 100%
Source Step = 100%
Source Step = 100%
Source Step = 100%
Source Step = 100%
Source Step = 100%
Source Step = 100%
Source Step = 100%
Source Step = 100%
Source Step = 100%
Source Step = 100%
Source Step = 100%
Source Step = 100%
Source Step = 100%
Source Step = 100%
Source Step = 100%
Source Step = 100%
Source Step = 100%
Source Step = 100%
Source Step = 100%
Source Step = 100%
Source Step = 100%
Source Step = 100%
Source Step = 100%
Source Step = 100%
Source Step = 100%
Source Step = 100%
Source Step = 100%
Source Step = 100%
Source Step = 100%
Source Step = 100%
Source Step = 100%
Source Step = 100%
Source Step = 100%
Source Step = 100%
Source Step = 100%
Source Step = 100%
Source Step = 100%
Source Step = 100%
Source Step = 100%
Source Step = 100%
Source Step = 100%
Source Step = 100%
Source Step = 100%
Source Step = 100%
Source Step = 100%
Source Step = 100%
Source Step = 100%
Source Step = 100%
Source Step = 100%
Source Step = 100%
Source stepping aborted.
Starting source stepping with srcstepmethod=1
Source Step = 3.0303%
Source Step = 33.3333%
Source Step = 63.6364%
Source Step = 93.9394%
Source Step = 98.5322%
Source Step = 98.7423%
Source Step = 98.7719%
Source Step = 98.8015%
Source Step = 98.8311%
Source Step = 98.8607%
Source Step = 98.8903%
Source Step = 98.9199%
Source Step = 98.9495%
Source Step = 98.979%
Source Step = 99.0086%
Source Step = 99.0382%
Source Step = 99.0678%
Source Step = 99.0974%
Source Step = 99.127%
Source Step = 99.1566%
Source Step = 99.1862%
Source Step = 99.2158%
Source Step = 99.2454%
Source Step = 99.275%
Source Step = 99.3046%
Source Step = 99.3342%
Source Step = 99.3638%
Source Step = 99.3933%
Source Step = 99.4229%
Source Step = 99.4525%
Source Step = 99.4821%
Source Step = 99.5117%
Source Step = 99.5413%
Source Step = 99.5709%
Source Step = 99.6005%
Source Step = 99.6301%
Source Step = 99.6597%
Source Step = 99.6893%
Source Step = 99.7189%
Source Step = 99.7485%
Source Step = 99.7781%
Source Step = 99.8076%
Source Step = 99.8372%
Source Step = 99.8668%
Source Step = 99.8964%
Source Step = 99.926%
Source Step = 99.9556%
Source Step = 99.9852%
Source Step = 100%
Source Step = 100%
Source Step = 100%
Source Step = 100%
Source Step = 100%
Source Step = 100%
Source Step = 100%
Source Step = 100%
Source Step = 100%
Source Step = 100%
Source Step = 100%
Source Step = 100%
Source Step = 100%
Source Step = 100%
Source Step = 100%
Source Step = 100%
Source Step = 100%
Source Step = 100%
Source Step = 100%
Source Step = 100%
Source Step = 100%
Source Step = 100%
Source Step = 100%
Source Step = 100%
Source Step = 100%
Source Step = 100%
Source Step = 100%
Source Step = 100%
Source Step = 100%
Source Step = 100%
Source Step = 100%
Source Step = 100%
Source Step = 100%
Source Step = 100%
Source Step = 100%
Source Step = 100%
Source Step = 100%
Source Step = 100%
Source Step = 100%
Source Step = 100%
Source Step = 100%
Source Step = 100%
Source Step = 100%
Source Step = 100%
Source Step = 100%
Source Step = 100%
Source Step = 100%
Source Step = 100%
Source Step = 100%
Source Step = 100%
Source Step = 100%
Source Step = 100%
Source Step = 100%
Source Step = 100%
Source Step = 100%
Source Step = 100%
Source Step = 100%
Source Step = 100%
Source Step = 100%
Source Step = 100%
Source Step = 100%
Source Step = 100%
Source Step = 100%
Source Step = 100%
Source Step = 100%
Source Step = 100%
Source Step = 100%
Source Step = 100%
Source Step = 100%
Source Step = 100%
Source Step = 100%
Source Step = 100%
Source Step = 100%
Source Step = 100%
Source Step = 100%
Source Step = 100%
Source Step = 100%
Source Step = 100%
Source Step = 100%
Source Step = 100%
Source Step = 100%
Source Step = 100%
Source Step = 100%
Source Step = 100%
Source Step = 100%
Source Step = 100%
Source Step = 100%
Source Step = 100%
Source Step = 100%
Source Step = 100%
Source Step = 100%
Source Step = 100%
Source Step = 100%
Source Step = 100%
Source Step = 100%
Source Step = 100%
Source Step = 100%
Source Step = 100%
Source Step = 100%
Source Step = 100%
Source Step = 100%
Source Step = 100%
Source Step = 100%
Source Step = 100%
Source Step = 100%
Source Step = 100%
Source Step = 100%
Source Step = 100%
Source Step = 100%
Source Step = 100%
Source Step = 100%
Source Step = 100%
Source Step = 100%
Source Step = 100%
Source Step = 100%
Source Step = 100%
Source Step = 100%
Source Step = 100%
Source Step = 100%
Source Step = 100%
Source stepping aborted.
Pseudo Transient failed in finding the operating point at 170.874 µs.
Trouble finding operating point....skipping operating point for Transient analysis.
Changing Tseed to 9.76562e-08
Changing Tseed to 9.76562e-10
Changing Tseed to 9.76562e-07
Changing Tseed to 9.76562e-11
Changing Tseed to 9.76562e-06
Changing Tseed to 9.76562e-12
Changing Tseed to 9.76562e-05
Changing Tseed to 9.76562e-13
Warning: Simulation tolerance relaxed to achieve convergence from 5.4938321187019544e-10 to 5.4938321287019549e-10 seconds.
Warning: Simulation tolerance relaxed to achieve convergence from 5.4938358087019581e-10 to 5.4938358187019585e-10 seconds.
Warning: Simulation tolerance relaxed to achieve convergence from 5.4938361187019578e-10 to 5.4938361287019582e-10 seconds.
Warning: Simulation tolerance relaxed to achieve convergence from 5.4938484187019588e-10 to 5.4938484287019593e-10 seconds.
Warning: Simulation tolerance relaxed to achieve convergence from 5.4938485487019606e-10 to 5.4938485587019611e-10 seconds.
Warning: Simulation tolerance relaxed to achieve convergence from 5.4959079087019583e-10 to 5.4959079187019588e-10 seconds.
Warning: Simulation tolerance relaxed to achieve convergence from 5.4959085287019577e-10 to 5.4959085387019582e-10 seconds.
Warning: Simulation tolerance relaxed to achieve convergence from 5.4959390587019606e-10 to 5.4959390687019610e-10 seconds.
Warning: Simulation tolerance relaxed to achieve convergence from 5.4959393987019606e-10 to 5.4959394087019611e-10 seconds.
Warning: Simulation tolerance relaxed to achieve convergence from 5.4959398987019598e-10 to 5.4959399087019602e-10 seconds.
Warning: Simulation tolerance relaxed to achieve convergence from 5.4959401787019592e-10 to 5.4959401887019596e-10 seconds.
Warning: Simulation tolerance relaxed to achieve convergence from 5.4959417187019604e-10 to 5.4959417287019609e-10 seconds.
Warning: Simulation tolerance relaxed to achieve convergence from 5.4959482687019586e-10 to 5.4959482787019590e-10 seconds.
Warning: Simulation tolerance relaxed to achieve convergence from 5.4959483487019591e-10 to 5.4959483587019596e-10 seconds.
Warning: Simulation tolerance relaxed to achieve convergence from 5.4959483687019601e-10 to 5.4959483787019605e-10 seconds.
Warning: Simulation tolerance relaxed to achieve convergence from 5.4959510787019591e-10 to 5.4959510887019596e-10 seconds.
Warning: Simulation tolerance relaxed to achieve convergence from 5.4959512887019584e-10 to 5.4959512987019588e-10 seconds.
Warning: Simulation tolerance relaxed to achieve convergence from 5.4959553387019568e-10 to 5.4959553487019572e-10 seconds.
Warning: Simulation tolerance relaxed to achieve convergence from 5.4959553487019572e-10 to 5.4959553587019577e-10 seconds.
Warning: Simulation tolerance relaxed to achieve convergence from 5.4959553687019582e-10 to 5.4959553787019586e-10 seconds.
Warning: Simulation tolerance relaxed to achieve convergence from 5.4959555187019578e-10 to 5.4959555287019583e-10 seconds.
Warning: Simulation tolerance relaxed to achieve convergence from 5.4959556187019582e-10 to 5.4959556287019587e-10 seconds.
Warning: Simulation tolerance relaxed to achieve convergence from 5.4959556587019590e-10 to 5.4959556687019595e-10 seconds.
Warning: Simulation tolerance relaxed to achieve convergence from 5.4959558087019587e-10 to 5.4959558187019591e-10 seconds.
Warning: Simulation tolerance relaxed to achieve convergence from 5.4959559587019604e-10 to 5.4959559687019608e-10 seconds.
Warning: Simulation tolerance relaxed to achieve convergence from 5.4959561087019600e-10 to 5.4959561187019605e-10 seconds.
Warning: Simulation tolerance relaxed to achieve convergence from 6.5675967187019611e-10 to 6.5675967287019616e-10 seconds.
Warning: Simulation tolerance relaxed to achieve convergence from 6.5675970087019599e-10 to 6.5675970187019604e-10 seconds.
Warning: Simulation tolerance relaxed to achieve convergence from 6.5748325487019625e-10 to 6.5748325587019629e-10 seconds.
Warning: Simulation tolerance relaxed to achieve convergence from 6.5751602087019666e-10 to 6.5751602187019671e-10 seconds.
Warning: Simulation tolerance relaxed to achieve convergence from 6.5751704087019645e-10 to 6.5751704187019650e-10 seconds.
Warning: Simulation tolerance relaxed to achieve convergence from 6.5751704487019653e-10 to 6.5751704587019658e-10 seconds.
Warning: Simulation tolerance relaxed to achieve convergence from 6.5753108687019661e-10 to 6.5753108787019666e-10 seconds.
Warning: Simulation tolerance relaxed to achieve convergence from 6.5755103787019681e-10 to 6.5755103887019686e-10 seconds.
Singular matrix:  Check node n002
   Iteration No. 3
Total elapsed time: 0.000 seconds.
Singular matrix:  check node n002
   Iteration No. 3

This circuit has floating nodes.
Try menu command View=>SPICE Error Log.